6
FINAL HEAT OF FORMATION =        -49.03851 KCAL
Cl                 -4.0809    0.0000    0.0000          -.9996 
C                 -0.0809    0.0000    0.0000           -.2469 
Br                  1.8395    0.0000    0.0000          -.1258 
H                 -0.4405    1.0499    0.0000            .1241 
H                 -0.4405   -0.5250    0.9092            .1241 
H                 -0.4405   -0.5250   -0.9092            .1241 
6
FINAL HEAT OF FORMATION =        -49.65025 KCAL
Cl                 -3.9000    0.0000    0.0000          -.999 
C                 -0.1500    0.0000    0.0000           -.2417 
Br                  1.7723    0.0000    0.0000          -.135 
H                 -0.5106    1.0495    0.0000            .1252 
H                 -0.5106   -0.5248    0.9089            .1252 
H                 -0.5106   -0.5248   -0.9089            .1252 
6
FINAL HEAT OF FORMATION =        -50.40951 KCAL
Cl                 -3.7194    0.0000    0.0000          -.9973 
C                 -0.2194    0.0000    0.0000           -.2355 
Br                  1.7053    0.0000    0.0000          -.1463 
H                 -0.5817    1.0489    0.0000            .1264 
H                 -0.5817   -0.5244    0.9084            .1264 
H                 -0.5817   -0.5244   -0.9084            .1264 
6
FINAL HEAT OF FORMATION =        -51.36935 KCAL
Cl                 -3.5397    0.0000    0.0000          -.9933 
C                 -0.2897    0.0000    0.0000           -.2268 
Br                  1.6388    0.0000    0.0000          -.1619 
H                 -0.6531    1.0485    0.0000            .1273 
H                 -0.6531   -0.5243    0.9081            .1273 
H                 -0.6531   -0.5243   -0.9081            .1273 
6
FINAL HEAT OF FORMATION =        -52.31620 KCAL
Cl                 -3.3639    0.0000    0.0000          -.9841 
C                 -0.3639    0.0000    0.0000           -.2091 
Br                  1.5745    0.0000    0.0000          -.189 
H                 -0.7208    1.0499    0.0000            .1274 
H                 -0.7208   -0.5250    0.9093            .1274 
H                 -0.7208   -0.5250   -0.9093            .1274 
6
FINAL HEAT OF FORMATION =        -52.50770 KCAL
Cl                 -3.2948    0.0000    0.0000          -.9778 
C                 -0.3948    0.0000    0.0000           -.1985 
Br                  1.5495    0.0000    0.0000          -.2047 
H                 -0.7457    1.0517    0.0000            .127 
H                 -0.7457   -0.5259    0.9108            .127 
H                 -0.7457   -0.5259   -0.9108            .127 
6
FINAL HEAT OF FORMATION =        -52.46067 KCAL
Cl                 -3.2282    0.0000    0.0000          -.9693 
C                 -0.4282    0.0000    0.0000           -.1831 
Br                  1.5258    0.0000    0.0000          -.2259 
H                 -0.7687    1.0543    0.0000            .1261 
H                 -0.7687   -0.5271    0.9130            .1261 
H                 -0.7687   -0.5271   -0.9130            .1261 
6
FINAL HEAT OF FORMATION =        -52.31758 KCAL
Cl                 -3.1949    0.0000    0.0000          -.964 
C                 -0.4449    0.0000    0.0000           -.1747 
Br                  1.5139    0.0000    0.0000          -.2378 
H                 -0.7792    1.0558    0.0000            .1255 
H                 -0.7792   -0.5279    0.9144            .1255 
H                 -0.7792   -0.5279   -0.9144            .1255 
6
FINAL HEAT OF FORMATION =        -52.07980 KCAL
Cl                 -3.1623    0.0000    0.0000          -.9578 
C                 -0.4623    0.0000    0.0000           -.1653 
Br                  1.5025    0.0000    0.0000          -.2512 
H                 -0.7900    1.0576    0.0000            .1248 
H                 -0.7900   -0.5288    0.9159            .1248 
H                 -0.7900   -0.5288   -0.9159            .1248 
6
FINAL HEAT OF FORMATION =        -51.28290 KCAL
Cl                 -3.0999    0.0000    0.0000          -.9422 
C                 -0.4999    0.0000    0.0000           -.1406 
Br                  1.4811    0.0000    0.0000          -.2851 
H                 -0.8075    1.0624    0.0000            .1226 
H                 -0.8075   -0.5312    0.9201            .1226 
H                 -0.8075   -0.5312   -0.9201            .1226 
6
FINAL HEAT OF FORMATION =        -50.01106 KCAL
Cl                 -3.0418    0.0000    0.0000          -.9207 
C                 -0.5418    0.0000    0.0000           -.1096 
Br                  1.4622    0.0000    0.0000          -.3287 
H                 -0.8218    1.0685    0.0000            .1197 
H                 -0.8218   -0.5343    0.9254            .1197 
H                 -0.8218   -0.5343   -0.9254            .1197 
6
FINAL HEAT OF FORMATION =        -48.24934 KCAL
Cl                 -2.9876    0.0000    0.0000          -.8912 
C                 -0.5876    0.0000    0.0000           -.0735 
Br                  1.4454    0.0000    0.0000          -.3829 
H                 -0.8308    1.0759    0.0000            .1159 
H                 -0.8308   -0.5380    0.9318            .1159 
H                 -0.8308   -0.5380   -0.9318            .1159 
6
FINAL HEAT OF FORMATION =        -46.08198 KCAL
Cl                 -2.9431    0.0000    0.0000          -.8484 
C                 -0.6431    0.0000    0.0000           -.0298 
Br                  1.4340    0.0000    0.0000          -.4554 
H                 -0.8315    1.0848    0.0000            .1112 
H                 -0.8315   -0.5424    0.9395            .1112 
H                 -0.8315   -0.5424   -0.9395            .1112 
6
FINAL HEAT OF FORMATION =        -43.78515 KCAL
Cl                 -2.9098    0.0000    0.0000          -.786 
C                 -0.7098    0.0000    0.0000            .013 
Br                  1.4290    0.0000    0.0000          -.5467 
H                 -0.8242    1.0934    0.0000            .1066 
H                 -0.8242   -0.5467    0.9469            .1066 
H                 -0.8242   -0.5467   -0.9469            .1066 
6
FINAL HEAT OF FORMATION =        -43.25017 KCAL
Cl                 -2.9037    0.0000    0.0000          -.7666 
C                 -0.7287    0.0000    0.0000            .0221 
Br                  1.4290    0.0000    0.0000          -.5723 
H                 -0.8215    1.0952    0.0000            .1056 
H                 -0.8215   -0.5476    0.9484            .1056 
H                 -0.8215   -0.5476   -0.9484            .1056 
6
FINAL HEAT OF FORMATION =        -42.75362 KCAL
Cl                 -2.9014    0.0000    0.0000          -.7437 
C                 -0.7514    0.0000    0.0000            .0313 
Br                  1.4312    0.0000    0.0000          -.6023 
H                 -0.8180    1.0967    0.0000            .1049 
H                 -0.8180   -0.5483    0.9498            .1049 
H                 -0.8180   -0.5483   -0.9498            .1049 
6
FINAL HEAT OF FORMATION =        -42.30916 KCAL
Cl                 -2.8978    0.0000    0.0000          -.7207 
C                 -0.7728    0.0000    0.0000            .0377 
Br                  1.4327    0.0000    0.0000          -.63 
H                 -0.8154    1.0977    0.0000            .1043 
H                 -0.8154   -0.5489    0.9507            .1043 
H                 -0.8154   -0.5489   -0.9507            .1043 
6
FINAL HEAT OF FORMATION =        -41.93371 KCAL
Cl                 -2.9001    0.0000    0.0000          -.6926 
C                 -0.8001    0.0000    0.0000            .0436 
Br                  1.4378    0.0000    0.0000          -.6637 
H                 -0.8122    1.0983    0.0000            .1042 
H                 -0.8122   -0.5491    0.9511            .1042 
H                 -0.8122   -0.5491   -0.9511            .1042 
6
FINAL HEAT OF FORMATION =        -41.64305 KCAL
Cl                 -2.9076    0.0000    0.0000          -.6595 
C                 -0.8326    0.0000    0.0000            .0471 
Br                  1.4458    0.0000    0.0000          -.7016 
H                 -0.8077    1.0977    0.0000            .1047 
H                 -0.8077   -0.5489    0.9507            .1047 
H                 -0.8077   -0.5489   -0.9507            .1047 
6
FINAL HEAT OF FORMATION =        -41.46914 KCAL
Cl                 -2.9153    0.0000    0.0000          -.6274 
C                 -0.8653    0.0000    0.0000            .0469 
Br                  1.4542    0.0000    0.0000          -.7355 
H                 -0.8104    1.0969    0.0000            .1053 
H                 -0.8104   -0.5484    0.9499            .1053 
H                 -0.8104   -0.5484   -0.9499            .1053 
6
FINAL HEAT OF FORMATION =        -41.62762 KCAL
Cl                 -2.9843    0.0000    0.0000          -.5308 
C                 -0.9843    0.0000    0.0000            .0316 
Br                  1.5037    0.0000    0.0000          -.8308 
H                 -0.8364    1.0891    0.0000            .11 
H                 -0.8364   -0.5445    0.9432            .11 
H                 -0.8364   -0.5445   -0.9432            .11 
6
FINAL HEAT OF FORMATION =        -42.18643 KCAL
Cl                 -3.0875    0.0000    0.0000          -.4562 
C                 -1.1125    0.0000    0.0000            .0088 
Br                  1.5713    0.0000    0.0000          -.8951 
H                 -0.9037    1.0805    0.0000            .1142 
H                 -0.9037   -0.5403    0.9358            .1142 
H                 -0.9037   -0.5403   -0.9358            .1142 
6
FINAL HEAT OF FORMATION =        -42.99093 KCAL
Cl                 -3.1338    0.0000    0.0000          -.4149 
C                 -1.1838    0.0000    0.0000           -.0094 
Br                  1.6042    0.0000    0.0000          -.9222 
H                 -0.9470    1.0760    0.0000            .1155 
H                 -0.9470   -0.5380    0.9319            .1155 
H                 -0.9470   -0.5380   -0.9319            .1155 
6
FINAL HEAT OF FORMATION =        -43.83548 KCAL
Cl                 -3.1591    0.0000    0.0000          -.384 
C                 -1.2341    0.0000    0.0000           -.026 
Br                  1.6242    0.0000    0.0000          -.9384 
H                 -0.9772    1.0726    0.0000            .1161 
H                 -0.9772   -0.5363    0.9289            .1161 
H                 -0.9772   -0.5363   -0.9289            .1161 
6
FINAL HEAT OF FORMATION =        -44.64693 KCAL
Cl                 -3.1736    0.0000    0.0000          -.3583 
C                 -1.2736    0.0000    0.0000           -.0414 
Br                  1.6374    0.0000    0.0000          -.9494 
H                 -1.0010    1.0697    0.0000            .1164 
H                 -1.0010   -0.5349    0.9264            .1164 
H                 -1.0010   -0.5349   -0.9264            .1164 
6
FINAL HEAT OF FORMATION =        -45.38053 KCAL
Cl                 -3.1849    0.0000    0.0000          -.3342 
C                 -1.3099    0.0000    0.0000           -.0574 
Br                  1.6487    0.0000    0.0000          -.9582 
H                 -1.0218    1.0670    0.0000            .1166 
H                 -1.0218   -0.5335    0.9241            .1166 
H                 -1.0218   -0.5335   -0.9241            .1166 
6
FINAL HEAT OF FORMATION =        -45.99914 KCAL
Cl                 -3.1913    0.0000    0.0000          -.3124 
C                 -1.3413    0.0000    0.0000           -.0728 
Br                  1.6569    0.0000    0.0000          -.9647 
H                 -1.0396    1.0643    0.0000            .1167 
H                 -1.0396   -0.5322    0.9217            .1167 
H                 -1.0396   -0.5322   -0.9217            .1167 
6
FINAL HEAT OF FORMATION =        -46.46767 KCAL
Cl                 -3.1944    0.0000    0.0000          -.2922 
C                 -1.3694    0.0000    0.0000           -.0877 
Br                  1.6632    0.0000    0.0000          -.9699 
H                 -1.0561    1.0622    0.0000            .1166 
H                 -1.0561   -0.5311    0.9199            .1166 
H                 -1.0561   -0.5311   -0.9199            .1166 
6
FINAL HEAT OF FORMATION =        -46.75063 KCAL
Cl                 -3.1995    0.0000    0.0000          -.2719 
C                 -1.3995    0.0000    0.0000           -.1033 
Br                  1.6706    0.0000    0.0000          -.9745 
H                 -1.0735    1.0597    0.0000            .1166 
H                 -1.0735   -0.5298    0.9177            .1166 
H                 -1.0735   -0.5298   -0.9177            .1166 
6
FINAL HEAT OF FORMATION =        -46.60937 KCAL
Cl                 -3.2025    0.0000    0.0000          -.2338 
C                 -1.4525    0.0000    0.0000           -.134 
Br                  1.6810    0.0000    0.0000          -.981 
H                 -1.1028    1.0549    0.0000            .1163 
H                 -1.1028   -0.5274    0.9135            .1163 
H                 -1.1028   -0.5274   -0.9135            .1163 
6
FINAL HEAT OF FORMATION =        -45.24955 KCAL
Cl                 -3.2017    0.0000    0.0000          -.1974 
C                 -1.5017    0.0000    0.0000           -.1646 
Br                  1.6890    0.0000    0.0000          -.9855 
H                 -1.1288    1.0499    0.0000            .1158 
H                 -1.1288   -0.5249    0.9092            .1158 
H                 -1.1288   -0.5249   -0.9092            .1158 
